Circuit: * INA199A1

Fatal Error: No analysis request found.
