Circuit: * LMX58_LM2904 - Rev. A

Fatal Error: No analysis request found.
