Circuit: *Nov 04, 2013

Fatal Error: No analysis request found.
